/*--------------------------------*- C++ -*----------------------------------*\
| =========                 |                                                 |
| \\      /  F ield         | OpenFOAM: The Open Source CFD Toolbox           |
|  \\    /   O peration     | Version:  v2306                                 |
|   \\  /    A nd           | Website:  www.openfoam.com                      |
|    \\/     M anipulation  |                                                 |
\*---------------------------------------------------------------------------*/
FoamFile
{
    version     2.0;
    format      ascii;
    class       dictionary;
    object      porosityProperties;
}
// * * * * * * * * * * * * * * * * * * * * * * * * * * * * * * * * * * * * * //
n1 0.5;
T1 0.7;
um1 0.78 ;
d1 0.0159;
KC1 #eval{($T1 * $um1)/($d1 * $n1)};

n2 0.5;
T2 0.65;
um2 0.85 ;
d2 0.0123;
KC2 #eval{($T2 * $um2)/($d2 * $n2)};

// Medio poroso 1
porosityModel1 JensenEtAl2014;
porosityEnabled1 true;

JensenEtAl2014Coeffs1
{
    alpha 500;
    beta 2;
    gamma_p 0.34;
    d50 0.0159;
    KC $KC1; 
}

// Medio poroso 2
porosityModel2 JensenEtAl2014;
porosityEnabled2 true;

JensenEtAl2014Coeffs2
{
    alpha 450;
    beta 1.8;
    gamma_p 0.3;
    d50 0.0123;
    KC $KC2; 
}
// ************************************************************************* //
